/content/drive/MyDrive/00_GITHUB_GD/DOCKING_ML/Docking_Scores/XYZ/57-DMF.xyz
 OpenBabel04072613093D

 35 37  0  0  0  0  0  0  0  0999 V2000
    0.8635    0.6790    0.0542 O   0  0  0  0  0  0  0  0  0  0  0  0
   -3.0378   -2.0504   -0.0958 O   0  0  0  0  0  0  0  0  0  0  0  0
   -3.2731    2.7317    0.1309 O   0  0  0  0  0  0  0  0  0  0  0  0
   -0.5459   -3.1179   -0.1143 O   0  0  0  0  0  0  0  0  0  0  0  0
   -1.0548   -0.7817   -0.0232 C   0  0  0  0  0  0  0  0  0  0  0  0
   -0.4834    0.4971    0.0353 C   0  0  0  0  0  0  0  0  0  0  0  0
   -2.4736   -0.8347   -0.0344 C   0  0  0  0  0  0  0  0  0  0  0  0
    1.7027   -0.3700   -0.0004 C   0  0  0  0  0  0  0  0  0  0  0  0
   -0.1663   -1.9415   -0.0691 C   0  0  0  0  0  0  0  0  0  0  0  0
   -1.2195    1.6632    0.0857 C   0  0  0  0  0  0  0  0  0  0  0  0
    1.2456   -1.6319   -0.0663 C   0  0  0  0  0  0  0  0  0  0  0  0
    3.1176    0.0363    0.0059 C   0  0  0  0  0  0  0  0  0  0  0  0
   -2.6004    1.5669    0.0772 C   0  0  0  0  0  0  0  0  0  0  0  0
   -3.2320    0.3229    0.0156 C   0  0  0  0  0  0  0  0  0  0  0  0
    3.4848    1.3088   -0.4301 C   0  0  0  0  0  0  0  0  0  0  0  0
    4.1048   -0.8488    0.4382 C   0  0  0  0  0  0  0  0  0  0  0  0
    4.8187    1.6829   -0.4437 C   0  0  0  0  0  0  0  0  0  0  0  0
    5.4358   -0.4687    0.4256 C   0  0  0  0  0  0  0  0  0  0  0  0
    5.7968    0.7965   -0.0171 C   0  0  0  0  0  0  0  0  0  0  0  0
   -4.4554   -2.1535   -0.1150 C   0  0  0  0  0  0  0  0  0  0  0  0
   -4.6957    2.7061    0.1392 C   0  0  0  0  0  0  0  0  0  0  0  0
   -0.7255    2.6230    0.1331 H   0  0  0  0  0  0  0  0  0  0  0  0
    1.9385   -2.4577   -0.1331 H   0  0  0  0  0  0  0  0  0  0  0  0
   -4.3072    0.2642    0.0091 H   0  0  0  0  0  0  0  0  0  0  0  0
    2.7289    2.0033   -0.7705 H   0  0  0  0  0  0  0  0  0  0  0  0
    3.8341   -1.8310    0.8027 H   0  0  0  0  0  0  0  0  0  0  0  0
    5.0940    2.6706   -0.7907 H   0  0  0  0  0  0  0  0  0  0  0  0
    6.1932   -1.1611    0.7700 H   0  0  0  0  0  0  0  0  0  0  0  0
    6.8384    1.0916   -0.0257 H   0  0  0  0  0  0  0  0  0  0  0  0
   -4.6694   -3.2179   -0.1665 H   0  0  0  0  0  0  0  0  0  0  0  0
   -4.8736   -1.6544   -0.9916 H   0  0  0  0  0  0  0  0  0  0  0  0
   -4.8920   -1.7372    0.7951 H   0  0  0  0  0  0  0  0  0  0  0  0
   -5.0724    2.1656    1.0099 H   0  0  0  0  0  0  0  0  0  0  0  0
   -5.0855    2.2576   -0.7767 H   0  0  0  0  0  0  0  0  0  0  0  0
   -5.0082    3.7457    0.1947 H   0  0  0  0  0  0  0  0  0  0  0  0
  2  7  1  0  0  0  0
  3 21  1  0  0  0  0
  4  9  2  0  0  0  0
  5  6  1  0  0  0  0
  6  1  1  0  0  0  0
  6 10  2  0  0  0  0
  7  5  2  0  0  0  0
  7 14  1  0  0  0  0
  8 12  1  0  0  0  0
  8  1  1  0  0  0  0
  9 11  1  0  0  0  0
  9  5  1  0  0  0  0
 10 22  1  0  0  0  0
 11  8  2  0  0  0  0
 12 16  1  0  0  0  0
 13 10  1  0  0  0  0
 13  3  1  0  0  0  0
 14 13  2  0  0  0  0
 15 12  2  0  0  0  0
 16 26  1  0  0  0  0
 17 15  1  0  0  0  0
 17 19  2  0  0  0  0
 18 16  2  0  0  0  0
 18 28  1  0  0  0  0
 19 18  1  0  0  0  0
 20  2  1  0  0  0  0
 20 32  1  0  0  0  0
 21 35  1  0  0  0  0
 21 33  1  0  0  0  0
 23 11  1  0  0  0  0
 24 14  1  0  0  0  0
 25 15  1  0  0  0  0
 27 17  1  0  0  0  0
 29 19  1  0  0  0  0
 30 20  1  0  0  0  0
 31 20  1  0  0  0  0
 34 21  1  0  0  0  0
M  END
$$$$
